Circuit: * Z:\home\arthur\Desktop\UFMG\Lab_Eletronica\source_project\Draft2.asc

WARNING: Less than two connections to node +2.1V.  This node is used by V5.
Direct Newton iteration failed to find .op point.  (Use ".option noopiter" to skip.)
Starting Gmin stepping
Gmin = 10
Gmin = 1.07374
Gmin = 0.115292
Gmin = 0.0123794
Gmin = 0.00132923
Gmin = 0.000142725
Gmin = 1.5325e-005
Gmin = 1.6455e-006
Gmin = 1.76685e-007
Gmin = 1.89714e-008
Gmin = 2.03704e-009
Gmin = 2.18725e-010
Gmin = 2.34854e-011
Gmin = 2.52173e-012
Gmin = 2.70769e-013
Gmin = 0
Gmin stepping succeeded in finding the operating point.


Date: Mon Nov 29 18:28:34 2021
Total elapsed time: 0.166 seconds.

tnom = 27
temp = 27
method = modified trap
totiter = 3405
traniter = 2993
tranpoints = 1204
accept = 1152
rejected = 52
matrix size = 36
fillins = 25
solver = Normal
Matrix Compiler1: 3.70 KB object code size  1.4/0.6/[0.5]
Matrix Compiler2: 3.50 KB object code size  0.7/1.0/[0.5]


