Circuit: * Z:\home\arthur\Desktop\UFMG\Lab_Eletronica\source_project\Fonte.asc

Direct Newton iteration failed to find .op point.  (Use ".option noopiter" to skip.)
Starting Gmin stepping
Gmin = 10
Gmin = 1.07374
Gmin = 0.115292
Gmin = 0.0123794
Gmin = 0.00132923
Gmin = 0.000142725
vernier = 0.5
vernier = 0.25
Gmin = 2.99316e-005
vernier = 0.125
vernier = 0.0625
vernier = 0.03125
vernier = 0.015625
vernier = 0.0078125
vernier = 0.00390625
vernier = 0.00195313
vernier = 0.000976563
Gmin = 2.99169e-005
vernier = 0.00130208
vernier = 0.00173611
Gmin = 2.98238e-005
vernier = 0.00231481
Gmin = 2.96732e-005
vernier = 0.00308642
vernier = 0.00411522
Gmin = 2.94282e-005
vernier = 0.00548696
vernier = 0.00731595
Gmin = 2.90441e-005
vernier = 0.00975459
Gmin = 2.84316e-005
vernier = 0.0130061
vernier = 0.0173415
Gmin = 2.74567e-005
vernier = 0.023122
vernier = 0.0308293
Gmin = 2.59811e-005
vernier = 0.0411057
Gmin = 2.37566e-005
vernier = 0.0548076
vernier = 0.0730768
Gmin = 2.05256e-005
vernier = 0.0974357
vernier = 0.129914
Gmin = 1.62972e-005
vernier = 0.173219
Gmin = 1.1237e-005
vernier = 0.230959
vernier = 0.307945
vernier = 0.153972
vernier = 0.0769862
Gmin = 7.69075e-006
vernier = 0.0384931
vernier = 0.0192465
vernier = 0.00962327
vernier = 0.00481163
vernier = 0.00240582
vernier = 0.00120291
vernier = 0.000601454
vernier = 0.000451091
Gmin = 0
Gmin stepping failed

Starting source stepping with srcstepmethod=0
Source Step = 3.0303%
Source Step = 33.3333%
Source Step = 63.6364%
Source Step = 93.9394%
Source stepping succeeded in finding the operating point.


Date: Mon Nov 29 17:03:46 2021
Total elapsed time: 0.556 seconds.

tnom = 27
temp = 27
method = modified trap
totiter = 6922
traniter = 3487
tranpoints = 1415
accept = 1303
rejected = 112
matrix size = 51
fillins = 53
solver = Normal
Matrix Compiler1: 5.88 KB object code size  1.8/0.9/[0.6]
Matrix Compiler2: 5.83 KB object code size  2.0/1.8/[0.8]


