Circuit: * D:\Arquivos\Documents\Estudo\UFMG\2021-2\Laboratório de Circuitos Eletrônicos 1\Trabalho\source_project\Fonte.asc

WARNING: Less than two connections to node -5V_ANTIGO.  This node is used by V3.
WARNING: Less than two connections to node +5V_ANTIGO.  This node is used by V4.
WARNING: Less than two connections to node +2.1V_ANTIGO.  This node is used by V5.
Early termination of direct N-R iteration.
Direct Newton iteration failed to find .op point.  (Use ".option noopiter" to skip.)
Starting Gmin stepping
Gmin = 10
Gmin = 1.07374
Gmin = 0.115292
Gmin = 0.0123794
Gmin = 0.00132923
Gmin = 0.000142725
Gmin = 1.5325e-005
Gmin = 1.6455e-006
Gmin = 1.76685e-007
Gmin = 1.89714e-008
Gmin = 2.03704e-009
Gmin = 2.18725e-010
Gmin = 2.34854e-011
Gmin = 2.52173e-012
Gmin = 2.70769e-013
Gmin = 0
Gmin stepping succeeded in finding the operating point.

Heightened Def Con from 0.000654899 to 0.000654901
Heightened Def Con from 0.000729177 to 0.000729177
Heightened Def Con from 0.000729177 to 0.000729177
Heightened Def Con from 0.000729177 to 0.000729179
Heightened Def Con from 0.000836166 to 0.000836167
Heightened Def Con from 0.000853489 to 0.000853489
Heightened Def Con from 0.000853489 to 0.000853489
Heightened Def Con from 0.000853489 to 0.000853489
Heightened Def Con from 0.000853489 to 0.000853489

Date: Tue Nov 30 09:45:40 2021
Total elapsed time: 0.482 seconds.

tnom = 27
temp = 27
method = modified trap
totiter = 6927
traniter = 6628
tranpoints = 2292
accept = 1870
rejected = 431
matrix size = 211
fillins = 560
solver = Normal
Thread vector: 38.8/31.6[4] 16.2/5.9[4] 10.8/3.3[4] 1.2/7.5[1]  2592/500
Matrix Compiler1: 40.62 KB object code size  34.7/15.0/[6.8]
Matrix Compiler2: 27.22 KB object code size  4.9/5.9/[1.8]

