Circuit: * D:\Arquivos\Documents\Estudo\UFMG\2021-2\Laboratório de Circuitos Eletrônicos 1\Trabalho\source_project\Fonte.asc

D12: both pins shorted together -- ignoring.
Early termination of direct N-R iteration.
Direct Newton iteration failed to find .op point.  (Use ".option noopiter" to skip.)
Starting Gmin stepping
Gmin = 10
Gmin = 1.07374
Gmin = 0.115292
Gmin = 0.0123794
Gmin = 0.00132923
Gmin = 0.000142725
Gmin = 1.5325e-005
Gmin = 1.6455e-006
Gmin = 1.76685e-007
Gmin = 1.89714e-008
Gmin = 2.03704e-009
Gmin = 2.18725e-010
Gmin = 2.34854e-011
Gmin = 2.52173e-012
Gmin = 2.70769e-013
Gmin = 0
Gmin stepping succeeded in finding the operating point.

Heightened Def Con from 0.000528209 to 0.000528211

Date: Tue Nov 30 10:25:58 2021
Total elapsed time: 0.531 seconds.

tnom = 27
temp = 27
method = modified trap
totiter = 5961
traniter = 5661
tranpoints = 2226
accept = 1881
rejected = 346
matrix size = 207
fillins = 560
solver = Normal
Thread vector: 45.0/26.5[10] 55.1/8.5[10] 11.5/6.5[10] 1.0/61.6[1]  2592/500
Matrix Compiler1: 40.62 KB object code size  14.7/11.2/[6.8]
Matrix Compiler2: 27.08 KB object code size  7.4/5.9/[1.7]

